14
 energy: -16.074321054466 gnorm: 0.000636553198 xtb: 6.4.1 (afa7bdf)
C         0.76991529845044    1.02838714696932   -0.07325362501181
C        -0.76935133653086    1.02877080487578   -0.07352664081907
C        -1.14251770886066   -0.44642594531352    0.19545434693128
C         1.14229976394009   -0.44712285157177    0.19524087513033
H         1.15769461034757    1.34765304091421   -1.04079773551811
H         1.18190034944084    1.68471415959633    0.69026348086586
H        -1.15660173843402    1.34773344102517   -1.04138798547201
H        -1.18132136089799    1.68567009103067    0.68950336839945
H        -1.28151678691860   -0.60640050680799    1.26866274021678
H        -2.04760544585557   -0.75975077607370   -0.32238252338554
H         1.28158302244528   -0.60742608183236    1.26836465946853
H         2.04704380086388   -0.76083558959735   -0.32296208019479
N        -0.00039338669294   -1.24958939899744   -0.21921523405677
H        -0.00052107095425   -1.32072857091916   -1.23318500778759
