26
 energy: -43.460822128470 gnorm: 0.000593502050 xtb: 6.4.1 (afa7bdf)
O         3.90962951310467    1.36750896862389    0.52550741729003
O        -4.28953678342974   -0.53235723691693   -0.35493938867107
O         4.23412245936349   -0.67007579597525   -0.34888197898031
N         1.91675317612153   -1.07797782936069   -1.16933213730538
N        -3.15897913975609    1.93298925299931   -0.45718089959248
C         1.19952148315706    0.08873126389116    0.89855916827742
C         2.01647320127832    0.17465044954559   -0.39262029440964
C        -0.26530634518945   -0.09151838800869    0.60485223189406
C        -1.02986233069405    0.99137932569277    0.19013745689768
C        -0.85783347315441   -1.34172761793921    0.69357260783253
C        -2.37793457730097    0.85619016121903   -0.12279859387238
C        -2.20232528309271   -1.50209432793519    0.38099391350174
C         3.54976493456199    0.32714597242331   -0.02784442418623
C        -2.96173482479268   -0.42442417139618   -0.02429803820621
H         1.37473715591824    1.00892165709714    1.45787252433647
H         1.57472346263092   -0.74065052586513    1.50167858639572
H         1.70689664752942    1.04182535589000   -0.97480345255094
H        -0.57583110405184    1.96931316492539    0.12413645112616
H        -0.29288041800989   -2.19414659770946    1.04048504147498
H        -2.65769751480877   -2.47878601897032    0.45985737005692
H         1.22401208677595   -1.71751024792431   -0.76809881750133
H         2.91232826222884   -1.45002587196355   -1.05124954891741
H        -2.68823156419117    2.75695699532930   -0.78747495758282
H        -4.04381000901307    1.71472744684192   -0.88379428269168
H        -4.59058401846329   -1.44240520883453   -0.22597184366007
H         1.71972510536251   -0.92808207486133   -2.16002874444129
