19
 energy: -26.300207118311 gnorm: 0.000677869362 xtb: 6.4.1 (afa7bdf)
C         1.12426896920702   -1.31078764941485   -0.00498023186006
C        -0.23851277476881   -1.54978703118553   -0.00079111035503
C        -1.15970672442084   -0.51366550823502    0.00132828722942
C        -0.66929144961266    0.79599984334032   -0.00058708757336
C         0.69841614393367    1.03432996775214   -0.00457724357803
C         1.61016427716559   -0.01080870109314   -0.00717513606725
H         1.03468827485253    2.06041594050957   -0.00649571069571
O        -1.49227993407575    1.88583072782997    0.00001343699212
H        -2.41889903341439    1.60477526955509    0.00027169209471
H        -0.59796711575205   -2.56879594272374   -0.00042965858265
H         1.81338811099377   -2.14225234902520   -0.00745372359225
C        -2.63801776500972   -0.78711986410987    0.00435349217194
H        -3.11173113277397   -0.36456890931439    0.89065043659061
H        -3.11493503609092   -0.36873178401941   -0.88221098763986
H        -2.81545115243656   -1.85881124335792    0.00711177889397
C         3.08161960218692    0.27349521702704    0.00539399554727
H         3.32306566883821    1.07059769934433   -0.69398555911743
H         3.38952929981749    0.59603725920733    0.99946817741858
H         3.64919641968950   -0.61470355396722   -0.25853813860554
