13
 energy: -32.109154905757 gnorm: 0.000632442563 xtb: 6.4.1 (afa7bdf)
C        -1.61112544284141   -0.04821829459632    0.00000571162960
C        -0.89188646542371   -1.23188048388400    0.00000526400709
C         0.48979383268826   -1.17074429309315    0.00000033484885
C         1.18281339270387    0.04383688242914   -0.00000420121376
C         0.41251820171395    1.21289231488122   -0.00000355576784
C        -0.96986691794918    1.17986546386390    0.00000132618797
H        -1.39718574670264   -2.18317618188607    0.00000868584132
H        -1.53098682092294    2.09869667901739    0.00000167899403
O         2.51695574211659    0.13573178393726   -0.00000902256250
H         2.92431055433007   -0.74979698766730   -0.00000890020499
Cl        1.40693626870071   -2.64743643954964   -0.00000029328131
Cl       -3.33963269928497   -0.10599607574728    0.00001184144927
Cl        1.23942124100713    2.72904436999807   -0.00000909151300
