23
 energy: -34.846219941725 gnorm: 0.000397292299 xtb: 6.4.1 (afa7bdf)
C        -2.68457484702809   -1.47863654833061   -0.42608977984037
C        -3.44549093524581   -0.36054774641843   -0.12558017923785
C        -2.82588648595109    0.82252688918386    0.22551856377439
C        -1.43800870520588    0.90733240434693    0.26977984811631
C        -0.65956998688223   -0.21260893393421   -0.04786354595178
C        -1.30591907894322   -1.39888578067688   -0.38234613613093
H        -0.70587910099392   -2.26236767124082   -0.62945175187662
O        -0.90029044852196    2.09886125216834    0.65394784464687
H         0.06178278630079    2.02146313301783    0.74912356837112
H        -4.52289884861240   -0.40941156681543   -0.15987751938129
H        -3.39690943120924    1.70299420649389    0.47550917842679
H        -3.16394894238215   -2.40665432496073   -0.69640534030706
C         0.81517777747394   -0.16029103731936   -0.03791068725592
C         1.54639114354102   -1.11892876285690    0.65978653656917
C         1.50071400579118    0.82706151267577   -0.74421656224113
C         2.92846445010926   -1.08400552409901    0.65969672660823
H         1.02188084970930   -1.88562588835763    1.21070847131782
C         2.88441658609279    0.85634405196656   -0.74552658740222
H         0.94727729770831    1.55447734772484   -1.32154938371346
C         3.60136025366834   -0.09536586612337   -0.04040513058298
H         3.48377291684433   -1.83041834753832    1.20781685735373
H         3.40291391576041    1.62330439749668   -1.30106296136739
H         4.68044043055212   -0.06988677541117   -0.03926628346200
