17
 energy: -27.194393137162 gnorm: 0.000609990945 xtb: 6.4.1 (afa7bdf)
C         0.92034601592012   -0.27214692553473    0.00004490889197
C         0.40239531216057    1.01749631591076    0.00010135227434
C        -0.96707293064144    1.21438948111079    0.00012743766586
C        -1.84020180790897    0.13424767343645    0.00010081526469
C        -1.32136791109369   -1.15672592525212    0.00005657290642
C         0.04374781577000   -1.35562999892598    0.00002757658094
H        -1.98437382030566   -2.00936711102012    0.00004289275531
H         0.45863949240914   -2.35091583092518   -0.00001123474963
O        -3.18006602101166    0.38570949676093    0.00010778914336
H        -3.67880544218862   -0.44483964826979    0.00021445947419
H        -1.37676885886073    2.21199570691571    0.00016727767231
H         1.04991637511153    1.87896953337977    0.00013366100684
O         2.25429735721144   -0.58428693876033    0.00001091484671
C         3.19329807574601    0.47256907381431   -0.00016315143998
H         4.16755193010257   -0.01107741472445   -0.00032454068371
H         3.09102690031659    1.09310960760835   -0.89456915162534
H         3.09133841236464    1.09313426520516    0.89426202878363
