17
 energy: -22.492184923744 gnorm: 0.000177630484 xtb: 6.4.1 (afa7bdf)
C         1.38896381391374    0.00192063831351   -0.01320650482531
C         0.67348850198692   -1.18966581507849   -0.01349867574577
C        -0.70653331557305   -1.19717095372345   -0.01645475402847
C        -1.42531007784858   -0.00004193032521   -0.01643347760224
C        -0.70816296287033    1.19764028473738   -0.01636126348623
C         0.67234898706721    1.19205867481860   -0.01337673759056
H         1.20471408408073    2.13313703522342   -0.01558654173450
H        -1.24441182092880    2.13604583865354   -0.01858835601457
N        -2.80285138909892   -0.00109368067983    0.05378343394205
H        -3.25858113028182    0.84652633305402   -0.24143772703190
H        -3.25736067777138   -0.84914307377739   -0.24207539832172
H        -1.24176626503606   -2.13615557310726   -0.01876264738968
H         1.20801869134379   -2.12948667473065   -0.01579389797855
C         2.88900683836252   -0.00058639598941    0.00860106716550
H         3.28298477811009    0.92023932622661   -0.41486856458248
H         3.25013130014498   -0.08354033380933    1.03434300439015
H         3.28143982942225   -0.84451538447610   -0.55450614397865
