20
 energy: -37.031452891537 gnorm: 0.000620348531 xtb: 6.4.1 (afa7bdf)
C        -0.59273903351462   -1.34465452437294    0.01236374607000
C         0.78792306735684   -1.32217830855725    0.00197589624035
C         1.47642164821323   -0.11534168096398   -0.01892191855998
C         0.76609598515085    1.12312928366669   -0.02972084014333
C        -0.61917616972655    1.08552031732592   -0.02452533094764
C        -1.29238356316347   -0.13927066817688   -0.00176451818482
H         1.32409757833890   -2.25589907493042    0.00943810498240
H        -1.19436329619546    1.99716345702582   -0.03442861428657
N         1.46377101545850    2.28630956036983    0.00593972980441
H         2.45013329321977    2.24041990322567   -0.18250166593097
H         0.97648868260443    3.14257533082416   -0.18725191838769
N        -2.69534312516965   -0.15370872564111    0.00207862280624
O        -3.28321450634172   -1.23528099640169    0.02121465931990
O        -3.30402975469023    0.91565107955880   -0.01480636304588
H        -1.13835599576676   -2.27349419618151    0.02906489628595
O         2.82007194948835    0.00769111418619   -0.03937032480507
C         3.62724575755769   -1.15778931217246   -0.02501157107061
H         3.44131232618128   -1.77506626628435   -0.90619055991741
H         4.65185862065985   -0.79416002197206   -0.04013888722770
H         3.45630872927826   -1.74105792169909    0.88171268646850
