17
 energy: -19.246384008066 gnorm: 0.000403958534 xtb: 6.4.1 (afa7bdf)
C         0.01646027400528    0.74743314699501    1.25038603400782
C        -0.65452533275244    1.31366155925798   -0.00000000789270
C         0.01645154224276    0.74742878224917   -1.25038875859351
C        -0.00104263351737   -0.78505437318446   -1.19898388481320
C        -0.00103426493252   -0.78505018863859    1.19898663073569
H        -0.49859634251566    1.09289050833718   -2.14769352913118
H        -1.71048789059515    1.03307971397841    0.00000417117175
H        -0.59509845169728    2.40402026482135   -0.00000211848022
H         1.05211859934761    1.09484449852260    1.29825328570762
H        -0.49858134457715    1.09289800565765    2.14769319444998
H        -1.03689610954269   -1.13825995066053   -1.21369142132496
H         0.51507233083968   -1.20286073552655   -2.06642846059586
H        -1.03688764041206   -1.13825571307089    1.21370263185035
H         0.51508675190671   -1.20285352290476    2.06642906357716
H         1.05210953228731    1.09483996782737   -1.29826445497218
N         0.62143964141713   -1.32299650404348    0.00000014040853
H         1.60603068778227   -1.06919411704011   -0.00000373746208
