17
 energy: -27.196183666964 gnorm: 0.000756580446 xtb: 6.4.1 (afa7bdf)
C        -0.67972852738754    1.19009922480966   -0.00001618739838
C        -0.76002910047749   -0.19671623124682    0.00006961718754
C         0.40802167432519   -0.95764021868580    0.00011193095623
C         1.64782724169818   -0.33993124987906    0.00005589184889
C         1.72732240381193    1.05203617870113   -0.00001531014184
C         0.56706028976234    1.79688969366093   -0.00004461588130
H         2.69910848358959    1.51815055957627   -0.00005351316871
H         0.62731951977237    2.87418570905770   -0.00010312002889
O         2.80690998268672   -1.04770608067358    0.00005721235757
H         2.62650392866784   -2.00007573084137    0.00017169017622
H        -1.56660998020845    1.80164055287045   -0.00005303326734
H         0.31414044571961   -2.03307419105665    0.00018325834221
O        -1.92112453679251   -0.91535945264107    0.00012966298545
C        -3.15090253771574   -0.21608019274019   -0.00023763940062
H        -3.25270308480292    0.40387930187781   -0.89472566658705
H        -3.91776699397361   -0.98741119087564   -0.00018258036199
H        -3.25302192146261    0.40430890343622    0.89391503026363
