21
 energy: -34.423192042839 gnorm: 0.000645008088 xtb: 6.4.1 (afa7bdf)
C        -0.03024236120041    2.08841677233271   -0.00000353937068
C         1.18332723630483    1.42514461419661   -0.00000661792260
C         1.19933083618142    0.03828624780916   -0.00000425328674
C        -0.00146170224586   -0.67882910003804    0.00000118987018
C        -1.22387124838906    0.00347685299187    0.00000426605951
C        -1.22586215589956    1.39323634399923    0.00000184744663
O        -0.00130606823029   -2.04400789507955    0.00000357198844
H         0.92098004408962   -2.34971928885785    0.00000088615566
H         2.10110810891883    1.98841942232257   -0.00001080468029
H        -0.04477831603739    3.16648132688296   -0.00000537018835
O         2.33037001790877   -0.74668950871502   -0.00000683134182
C         3.59008328489517   -0.10575970827372   -0.00001234720398
H         3.71955202498783    0.50870354426404    0.89433416906160
H         4.32005544764694   -0.91208493754368   -0.00001348800594
H         3.71954578124428    0.50870042243316   -0.89436191216590
H        -2.15477117076911    1.93785216738411    0.00000413943531
O        -2.33912526535920   -0.78714772172763    0.00000953892640
C        -3.60507258201731   -0.15736041541662    0.00001285875307
H        -4.32605851826103   -0.97158761259510    0.00001679655511
H        -3.74222541517974    0.45580710371331    0.89476100421872
H        -3.74223166172076    0.45580398048367   -0.89473646951143
