17
 energy: -40.891853026448 gnorm: 0.000530918304 xtb: 6.4.1 (afa7bdf)
C         1.39372639612774    0.13986059964950   -0.00003962497742
C         0.30355333481623   -0.70747383785805   -0.00004396888073
C        -0.98543521689126   -0.17898674491710   -0.00015096353576
C        -1.19052526947334    1.22714605463942    0.00004635949463
C        -0.04805666735696    2.05561261943031    0.00014173565677
C         1.21578809898944    1.53307898805528    0.00010907378387
H        -0.21488281526619    3.12024699811545    0.00021274449805
H         2.08753881885148    2.16879733663913    0.00014525960240
O        -2.36096419349526    1.81438477524820    0.00005774532984
H        -3.10720308857515    1.16675854176700    0.00003722435021
N         2.71044589639814   -0.40552938280904   -0.00036761655329
O         2.83450424008097   -1.61843999537243    0.00045299627207
O         3.65230573211806    0.36769917193668    0.00017518616159
H         0.44104381295303   -1.77954475165435   -0.00017287919528
N        -2.07252198917509   -1.09094732899556   -0.00067497547742
O        -3.21297988514461   -0.63429687519616    0.00019550825362
O        -1.84213957748428   -2.28403509577815    0.00011203470166
