17
 energy: -27.194445957109 gnorm: 0.000997612366 xtb: 6.4.1 (afa7bdf)
C        -1.37197416698987   -1.64579208127435    0.00000762368911
C        -0.00902241716457   -1.38292206613364   -0.00002815309272
C         0.44343851005018   -0.07545194685834   -0.00007070618955
C        -0.48315208500149    0.98139747129550   -0.00007364921739
C        -1.83945928939297    0.70403337612436   -0.00004313796183
C        -2.28352377982979   -0.60864426871394   -0.00000430729310
H        -2.52998644156546    1.53209149371437   -0.00004966528782
H        -3.34233931096464   -0.81296683846539    0.00002269963971
O        -0.06087215445013    2.27546596906687   -0.00010752412346
H         0.91015008142066    2.29042287189150   -0.00011320779365
H         0.68840261162419   -2.20483665640883   -0.00002390767669
H        -1.71148556990284   -2.66955773459802    0.00004620540374
O         1.76416637458248    0.31593142425576   -0.00011194412497
C         2.76069945867351   -0.68475292670901   -0.00009317416145
H         2.69239398623782   -1.30953665913833   -0.89432364447358
H         3.70621397662837   -0.14704808945730   -0.00006269034487
H         2.69234633295802   -1.30955394832996    0.89411940415955
