18
 energy: -26.555352005267 gnorm: 0.000193365245 xtb: 6.4.1 (afa7bdf)
C         0.93512405201012    0.27034179735974    0.00057587093581
C         0.06833207021400    1.36187259291415    0.00461563873672
C        -1.29611742571994    1.17616060704031    0.01511326558815
C        -1.84383613104501   -0.11019724751218    0.02048929021959
C        -0.96789743691386   -1.19404759493578    0.01594246219888
C         0.40391771792698   -1.01177848962518    0.00502973874340
H         1.04381460928288   -1.87984963904356    0.00256562948116
H        -1.36595625113708   -2.19812329648788    0.01850408459053
N        -3.20978102388370   -0.29837127711633   -0.04404202824692
H        -3.54205857950065   -1.19862930989978    0.26037006449489
H        -3.77186571363476    0.47991340296680    0.25899526803901
H         0.49403229781092    2.35326880877117    0.00217275029564
H        -1.95242784304898    2.03362728307230    0.01722600949927
O         2.27961090879772    0.57200275342990   -0.00450295873629
C         3.20271115976329   -0.49582331677074   -0.00329183772727
H         4.18446548576964   -0.02698081962108   -0.00427493414497
H         3.09295396209304   -1.11468660982591    0.89216997472781
H         3.09237853941827   -1.11748710262153   -0.89667306005424
