18
 energy: -29.335767626153 gnorm: 0.000725909129 xtb: 6.4.1 (afa7bdf)
C         0.66485891858437    0.05602270967925    0.00001093696961
C        -0.10717887392226    1.22192510210585   -0.00002316405974
C        -1.48288207124252    1.16974121093076   -0.00004819817126
C        -2.13010700225997   -0.06564130490028   -0.00000644423786
C        -1.36872426749578   -1.23705055896996    0.00006782679434
C         0.00611470145444   -1.17785312110846    0.00007749328074
O        -3.47190217662517   -0.18339300432679   -0.00001591695574
H        -3.90438269349625    0.68543404902344   -0.00008069140065
H         0.40830203329083    2.17111945019481   -0.00008646056975
H        -2.05770370387595    2.08410496705766   -0.00009530198610
H        -1.88662430082362   -2.18299403009171    0.00011292587264
C         2.13094835508157    0.19058856340587   -0.00006645506482
O         2.66944790549873    1.29175803472810    0.00005102821421
C         2.94974676080917   -1.07162367215359   -0.00006856710408
H         2.72075616655890   -1.66080963011155    0.88401753506937
H         2.72018957476156   -1.66121387274376   -0.88372539810672
H         4.00550175388160   -0.81308329303031   -0.00044641021113
H         0.56539673761040   -2.09847533270807    0.00013650034838
