14
 energy: -23.378460460539 gnorm: 0.000710244120 xtb: 6.4.1 (afa7bdf)
C        -0.96104840387238    0.00000870519442   -0.00878820639156
C        -0.27714137173005    1.20398537818726   -0.00011332593999
C         1.10217600436799    1.20166453981211    0.01868857744155
C         1.82115660237688   -0.00000416652321    0.02724738351070
C         1.10216963824098   -1.20166220706193    0.01870432200963
C        -0.27715437372327   -1.20396796571331   -0.00009280004052
H        -0.82244473324327    2.13463358943338   -0.00540711160358
H         1.63552041945782    2.13985270313630    0.02489432333631
H         1.63548544587216   -2.13986617063670    0.02492819021042
H        -0.82245119061132   -2.13462035162259   -0.00536293726893
N         3.18589286460558    0.00000095309629   -0.01660627390201
H         3.65927279153273    0.85519578769716    0.21684145903128
H         3.65928883895749   -0.85518658777783    0.21683848965216
Cl       -2.71015884664091    0.00002516708762   -0.02904273577801
