23
 energy: -33.529372899609 gnorm: 0.000680566141 xtb: 6.4.1 (afa7bdf)
C         1.36423663375401    0.19305334693394    0.34935207656060
C         0.30164165699513   -0.70212246968874    0.25747580177880
C        -0.98702985681226   -0.25091549062029    0.04093443206281
C        -1.23020504612690    1.12619873554104   -0.08840270584596
C        -0.17202588599009    2.01332196915101   -0.00256433219964
C         1.11474926596082    1.54830759696248    0.21308722571677
O        -2.49343836256452    1.59644120437385   -0.29492521192959
H        -3.10607203677228    0.84422074204042   -0.32559735333356
H         0.50009935842627   -1.75730149706962    0.36119583994318
O        -2.10726363485862   -1.04764457896148   -0.06280339025762
C        -1.94766669737321   -2.44613660653896    0.04966015441535
H        -1.54439833952686   -2.71962861949117    1.02816146277676
H        -2.94773082204795   -2.85909607291278   -0.06277081140245
H        -1.29868177597303   -2.83343938789730   -0.74014069160526
H         1.92849355150834    2.25414166370005    0.27843489872499
H        -0.37756566011468    3.06685252912406   -0.10550627164677
C         2.76183682847908   -0.32346891252445    0.54740118501812
H         3.37596623669627    0.45188608347396    1.00747113714967
H         2.74548324719844   -1.18728414950007    1.21453752302238
C         3.38499629331463   -0.73212810189800   -0.78956300932201
H         3.42067895031904    0.12025145304413   -1.46377622369577
H         4.39625602915004   -1.10127061774960   -0.63921789481022
H         2.79440258586971   -1.51461938483942   -1.25986139130874
