18
 energy: -26.555103767626 gnorm: 0.000336914220 xtb: 6.4.1 (afa7bdf)
C         1.32701765293624   -1.69420394511603    0.00367650526971
C        -0.02896759053947   -1.38897937617950    0.00116163845072
C        -0.44672103100709   -0.07242426156927   -0.00827085015768
C         0.50187265525158    0.97284463074910   -0.01433177819305
C         1.85236648283704    0.64204921750834   -0.02059277284188
C         2.26319910211685   -0.68014785741772   -0.00930860141305
H         3.31727615482491   -0.91305920123092   -0.01312722114362
H         2.58239503578360    1.43769532632071   -0.03086982067871
N         0.07583736354932    2.28170221450105    0.05569796171807
H         0.72410440822329    2.97340074435477   -0.28251209185845
H        -0.88659946702526    2.42451486897848   -0.20447744191678
H        -0.74753310567984   -2.19314240744282    0.00470197999794
H         1.63728176604562   -2.72770681262374    0.01293193138851
O        -1.76450639285029    0.33891300560561   -0.02792450573728
C        -2.77309503775229   -0.64689334366259   -0.02879253134137
H        -3.71225395417583   -0.09764781292461   -0.04451877936235
H        -2.70549409123152   -1.28418022454673   -0.91548852955710
H        -2.72499012487661   -1.26462999903034    0.87242547607177
