16
 energy: -17.087917071466 gnorm: 0.000291858380 xtb: 6.4.1 (afa7bdf)
N         0.08622637861239   -0.26389850898413    0.00000016075903
H        -0.64021500242911   -0.97555220575110    0.00000394173903
C        -0.02465270320934    0.52747060188856    1.21214788593630
H         0.82497984843120    1.21815106602777    1.22957084580208
H        -0.94742877177039    1.13949919862041    1.22267142022360
C         0.01102345066674   -0.36654783727636    2.44319751232455
H         0.91278791444918   -0.97136125722923    2.43398554871416
H        -0.00102660186718    0.23923334438116    3.34479342308255
H        -0.85149253108990   -1.02917037626077    2.45751149094156
C        -0.02466116861327    0.52746636729292   -1.21214955496196
H         0.82497126092218    1.21814677046496   -1.22958085890571
H        -0.94743731117620    1.13949493038611   -1.22266878407404
C         0.01100639323388   -0.36655636404867   -2.44319631103228
H        -0.85150969053881   -1.02917895009582   -2.45750195651309
H        -0.00104994700586    0.23922167069775   -3.34479425295440
H         0.91277092152901   -0.97136975503408   -2.43398852773634
