14
 energy: -23.377299827738 gnorm: 0.000699140780 xtb: 6.4.1 (afa7bdf)
C        -1.82377787485233   -1.28831259873373   -0.00538764415629
C        -2.35053745748948   -0.00609784502734   -0.00092318465948
C        -1.51887203947022    1.09369549234903    0.01474426604958
C        -0.12509113014914    0.95430164227145    0.02355704087349
C         0.37705317871213   -0.35322716583419    0.02049271718637
C        -0.44947700141546   -1.45815095736134    0.00600342751623
H        -0.01713574685605   -2.44700266950298    0.00576648645255
N         0.69516211023278    2.04285459781049   -0.02655137992287
H         0.30201268209021    2.93064981881118    0.23248809988688
H         1.66503907015196    1.89243093648443    0.19446406489478
H        -1.93487264832246    2.08956678157795    0.01759874742298
H        -3.42037028389259    0.13576312360131   -0.00696719496620
H        -2.47070823821935   -2.15044432160228   -0.01643657076250
Cl        2.11253198284319   -0.59921105040989    0.04249144610547
