24
 energy: -51.070228708381 gnorm: 0.000311574324 xtb: 6.4.1 (afa7bdf)
C        -2.19090781519393   -1.71946407960633    0.10701727993311
C        -3.35804663445492   -1.02152659725907   -0.15159249706039
C        -3.38262639507093    0.36386239425529   -0.13610596363091
C        -2.21156532953863    1.04741134660839    0.13101038412063
C        -1.01738692984134    0.36850440846552    0.38840139812259
C        -1.02924912250263   -1.02283172434446    0.38169648094241
H        -4.29226839489567    0.90595278777184   -0.33278786207432
H        -0.11870234348866   -1.55820920856924    0.59982377549611
H        -2.18902455343841   -2.79653870486102    0.10002964498121
O         0.07750555709768    1.11583425750356    0.69385681551182
Cl       -4.82195616762996   -1.88547155751380   -0.49411160930272
Cl       -2.20954031799549    2.77777667713723    0.15509906459166
C         1.33801568499580    0.60358978250312    0.46518752673726
C         1.68553225217732    0.01096019770906   -0.76092956583902
C         2.29731844185579    0.77787881327515    1.44946764960500
C         2.99505211199450   -0.41275338858601   -0.95171045674648
C         3.60299638639149    0.36374904624542    1.25174531295845
H         2.00298654020161    1.25073488739131    2.37175066404440
C         3.93423452268140   -0.23384295287402    0.04967220825461
H         3.28530227636191   -0.86988212575084   -1.88430289159880
H         4.34461368640989    0.50154194392590    2.01970922020693
O         0.73401553081399   -0.12230269607072   -1.71108171985030
H         1.09813236992983   -0.52191959177974   -2.51683678830077
Cl        5.56504423392106   -0.76937431482228   -0.22406253424922
