18
../calculations/M062X_631+Gdp_SDD_SMD_SAS_Alpha0485/La3H/step2_1_La3H.log	Energy: -491286.2222352
S          2.36550        1.99238        0.06455
C          2.29575       -2.57737        0.29400
C          3.50118       -1.86427        0.31790
C          3.50518       -0.47610        0.25070
C          2.29708        0.22421        0.15442
C          1.08622       -0.48015        0.12992
H          0.15286       -2.40674        0.18250
H          0.14358        0.05158        0.05698
C          1.09269       -1.86562        0.20121
H          4.44769        0.06101        0.27017
H          4.45022       -2.38392        0.38934
C          2.25775       -4.06387        0.35911
O          1.17932       -4.65701        0.38452
C          3.54740       -4.83289        0.38777
H          4.13006       -4.55884        1.27153
H          3.33178       -5.90068        0.40846
H          4.14858       -4.59338       -0.49360
H          1.04459        2.20335       -0.01361
