10
../calculations/M062X_631+Gdp_SDD_SMD_SAS_Alpha0485/La12H/step2_1_La12H.log	Energy: -323799.3050506
C          1.02092        0.69969       -0.78923
H          1.06839       -0.38227       -0.71272
H          1.92111        1.22486       -1.09295
C         -0.11795        1.33751       -0.50603
C         -1.38911        0.65340       -0.09759
H         -1.70017        0.97952        0.89941
H         -2.19896        0.89899       -0.79175
H         -1.24968       -0.42983       -0.09036
S         -0.15264        3.12359       -0.55217
H         -1.48405        3.26212       -0.61817
