16
../calculations/M062X_631+Gdp_SDD_SMD_SAS_Alpha0485/La44H/step2_1_La44H.log	Energy: -599073.5557509
C          3.64133       -0.31049        2.70229
H          3.09381       -0.65646        1.81752
H          3.12512       -0.71320        3.58211
C          3.61695        1.21642        2.75198
H          4.16444        1.56240        3.63676
H          4.13319        1.61912        1.87217
C          5.06970       -0.83514        2.65909
H          5.61988       -0.52099        3.54841
H          5.58796       -0.46164        1.77354
C          2.18858        1.74106        2.79513
H          1.67029        1.36759        3.68068
H          1.63842        1.42687        1.90581
S          2.20768        3.57295        2.85810
H          0.88235        3.76044        2.92584
S          5.05057       -2.66703        2.59607
H          6.37589       -2.85454        2.52813
