14
../calculations/M062X_631+Gdp_SDD_SMD_SAS_Alpha0485/La27H/step2_1_La27H.log	Energy: -621611.2048650
C          0.25952       -0.94971        2.70767
C         -1.18834       -0.50410        2.90882
H         -1.60086       -1.01155        3.78288
H         -1.78140       -0.77865        2.03566
S          0.23769       -2.80199        2.45869
H         -0.18426       -2.78265        1.18558
S         -1.41033        1.28081        3.23553
H         -1.19038        1.71038        1.98487
O          0.94177       -0.72622        3.92239
H          1.89303       -0.83320        3.77645
C          0.94631       -0.27025        1.53531
H          0.36034       -0.40249        0.62235
H          1.04427        0.79961        1.74033
H          1.94394       -0.68760        1.37915
