16
../calculations/M062X_631+Gdp_SDD_SMD_SAS_Alpha0485/La42H/step2_1_La42H.log	Energy: -396415.8605499
C          3.19764       -0.25009        2.50277
H          3.76204        0.16552        1.66091
H          3.74233       -0.02532        3.42823
C          1.81087        0.35945        2.55648
H          1.27290        0.11851        1.63039
H          1.93249        1.44864        2.58279
C          1.00038       -0.11182        3.76162
H          0.90719       -1.20307        3.73551
H          1.53395        0.14216        4.68624
C         -0.41242        0.45437        3.81195
H         -0.95683        0.20470        2.89838
H         -0.95495        0.04847        4.66653
S         -0.37305        2.28393        3.98886
H         -1.67613        2.45178        4.25132
O          3.07589       -1.66871        2.34725
H          3.96224       -2.05181        2.33486
