14
../calculations/M062X_631+Gdp_SDD_SMD_SAS_Alpha0485/La3019H/step2_1_La3019H.log	Energy: -481411.7001136
O          0.05444        0.54732        0.89687
O         -0.30299        0.12876       -1.27135
C          1.58072       -0.91860       -0.18370
C          0.36628       -0.04167       -0.26592
H          1.80534       -1.26227       -1.19464
H          1.30912       -1.79101        0.42088
C          2.78763       -0.21069        0.43947
H         -0.74618        1.08491        0.77194
H          2.56053        0.08804        1.46597
H          3.02647        0.69056       -0.13294
C          3.97234       -1.15401        0.43106
H          3.78864       -2.04236        1.03435
Cl         5.43756       -0.35764        1.14816
H          4.25661       -1.44539       -0.57944
