15
../calculations/M062X_631+Gdp_SDD_SMD_SAS_Alpha0485/La43H/step2_1_La43H.log	Energy: -442860.3510666
C          0.76626       -3.50873        0.12803
H          0.16640       -3.85228        0.97049
H          0.27409       -3.79475       -0.80204
C          2.17326       -4.08240        0.19267
H          2.79541       -3.69894       -0.62098
H          2.66637       -3.79979        1.12943
C          2.24991       -5.58418        0.11776
O          3.30026       -6.19090       -0.02796
O          1.07684       -6.19933        0.24408
S          0.88541       -1.68213        0.19595
C          1.10453       -7.63644        0.21348
H          1.71297       -8.01385        1.03617
H          0.07022       -7.95169        0.32847
H          1.50566       -7.98189       -0.74033
H         -0.42999       -1.43355        0.13872
