12
../calculations/M062X_631+Gdp_SDD_SMD_SAS_Alpha0485/La26H/step2_1_La26H.log	Energy: -324569.5575215
S          0.30996       -0.67849        0.02777
H         -0.08925       -2.85961        0.94237
C          0.33901       -2.52138       -0.00435
H         -1.02205       -0.53043       -0.02544
C         -0.48201       -3.06484       -1.16291
H         -0.45639       -4.15977       -1.14679
H         -1.52609       -2.74677       -1.09843
H         -0.07272       -2.72432       -2.11954
C          1.79606       -2.95600       -0.08483
H          2.38207       -2.57247        0.75478
H          1.84889       -4.04863       -0.06681
H          2.25367       -2.60844       -1.01687
