15
../calculations/M062X_631+Gdp_SDD_SMD_SAS_Alpha0485/La1H/step2_1_La1H.log	Energy: -523814.8672467
S         -1.37978        2.25169        0.26619
C         -1.33659       -2.32390       -0.08792
C         -0.17624       -1.55941       -0.07334
C         -0.17287       -0.17510        0.03459
C         -1.39996        0.48127        0.13269
C         -2.58684       -0.26099        0.12121
C         -2.54914       -1.64930        0.00980
H         -1.29065       -3.40095       -0.17677
H          0.76302        0.36958        0.04429
H         -3.54451        0.24313        0.19457
H         -3.47724       -2.20876       -0.00337
N          1.11423       -2.24535       -0.17362
O          2.13283       -1.57231       -0.23338
O          1.12315       -3.46747       -0.19166
H         -2.70742        2.42216        0.31314
