23
../calculations/M062X_631+Gdp_SDD_SMD_SAS_Alpha0485/La2008H+/step2_1_La2008H+.log	Energy: -183711.7288701
N          0.06101       -0.31194        0.05267
C          1.31604        0.49722        0.04303
C         -1.19527        0.49517        0.05556
C          2.54345       -0.39601        0.05331
C         -2.42141       -0.39982        0.06410
H          1.28434        1.12042       -0.85273
H          1.28487        1.14175        0.92345
H         -1.16118        1.13160        0.94178
H         -1.16879        1.12651       -0.83455
H          0.05790       -0.93061       -0.76298
H          2.51449       -1.04656        0.93430
H          2.53133       -1.04153       -0.83166
C          3.81653        0.44294        0.07114
H         -2.41417       -1.03617       -0.82755
H         -2.38604       -1.05933        0.93813
C         -3.69499        0.43774        0.09913
H          0.06509       -0.92263        0.87432
H         -3.75304        1.09992       -0.76994
H         -3.72974        1.05796        1.00004
H         -4.58052       -0.20240        0.09567
H          3.86924        1.09550       -0.80550
H          4.70243       -0.19672        0.06932
H          3.85675        1.07319        0.96476
