17
../calculations/M062X_631+Gdp_SDD_SMD_SAS_Alpha0485/La38H/step2_1_La38H.log	Energy: -467367.6066560
C         -0.39666       -1.99219        0.53484
C          0.81887       -2.67062        0.55655
C          0.83556       -4.06874        0.58953
C         -0.35736       -4.79433        0.59989
C         -1.56505       -4.09337        0.57793
C         -1.60315       -2.70427        0.54544
H          1.76420       -2.13727        0.54761
H         -0.36102       -5.87633        0.62542
H         -2.49681       -4.64957        0.58688
H         -2.55409       -2.18334        0.52965
S         -0.34872       -0.21376        0.49701
H         -1.67302       -0.01854        0.44639
O          2.07872       -4.64030        0.60916
C          2.15466       -6.06332        0.64055
H          1.69009       -6.49790       -0.24992
H          3.21636       -6.30432        0.65394
H          1.67585       -6.45882        1.54143
