15
../calculations/M062X_631+Gdp_SDD_SMD_SAS_Alpha0485/La25H/step2_1_La25H.log	Energy: -349225.5107285
S          0.31683       -0.80652       -0.03193
H         -0.19475       -2.99229        0.85601
H         -0.20410       -2.99161       -0.91983
C          0.33019       -2.64017       -0.03453
H         -1.01141       -0.63831        0.02830
C          1.76579       -3.14561       -0.04181
H          2.29162       -2.75464       -0.92210
H          2.29436       -2.76749        0.84230
C          1.82371       -4.67167       -0.05348
H          1.29376       -5.04514       -0.93826
H          1.28765       -5.05884        0.82173
C          3.25694       -5.19255       -0.05236
H          3.79513       -4.85104        0.83804
H          3.28555       -6.28597       -0.06316
H          3.80317       -4.83328       -0.93081
