11
../calculations/M062X_631+Gdp_SDD_SMD_SAS_Alpha0485/La3015H/step2_1_La3015H.log	Energy: -456751.8678213
O          0.34264        0.82556        0.71241
O         -0.49923       -0.34836       -0.99810
C          1.68181       -0.93677       -0.17846
C          0.40952       -0.13484       -0.21484
H          1.93954       -1.18297       -1.21000
H          1.44166       -1.87345        0.33558
C          2.82429       -0.22661        0.52057
H         -0.51317        1.28160        0.63389
H          2.61579       -0.03984        1.57127
H          3.09376        0.70312        0.02277
Cl         4.30470       -1.26727        0.48267
