12
../calculations/M062X_631+Gdp_SDD_SMD_SAS_Alpha0485/La14H/step2_1_La14H.log	Energy: -418200.6527162
S          2.04646        2.55244       -0.62262
C          2.10206        0.73163       -0.49146
H          3.03671        0.48516        0.00886
H          1.25824        0.37846        0.09960
O          0.88097        0.05418       -2.39137
C          0.79122       -0.47006       -3.72653
H          1.15227       -1.49893       -3.74900
H         -0.26399       -0.43107       -3.98547
H          1.37507        0.14947       -4.40868
C          2.09987        0.10399       -1.85746
O          3.09822       -0.29407       -2.43374
H          0.78158        2.63351       -1.05881
