5
../calculations/M062X_631+Gdp_SDD_SMD_SAS_Alpha0485/La3001H/step2_1_La3001H.log	Energy: -119042.0206054
O         -1.16888        0.17813        0.00003
O          1.08167        0.22234       -0.00001
C          0.03510       -0.39150        0.00006
H         -0.04132       -1.48160        0.00015
H         -1.07198        1.14723       -0.00005
