16
../calculations/M062X_631+Gdp_SDD_SMD_SAS_Alpha0485/La8H/step2_1_La8H.log	Energy: -420186.8224263
S          1.09036        2.29355        0.31199
C          2.25848       -0.17075        0.18082
C          1.03996        0.51847        0.18610
C         -0.16157       -0.18605        0.09625
C         -0.12906       -1.57738       -0.00275
C          1.08251       -2.26252       -0.00815
C          2.29280       -1.56299        0.08567
H          3.19272        0.38085        0.24833
H         -1.11163        0.33800        0.10259
H         -1.06281       -2.12604       -0.07495
H          1.09630       -3.34615       -0.08555
H         -0.23119        2.49866        0.23077
C          3.60294       -2.30535        0.08943
H          3.68093       -2.96016       -0.78319
H          4.45024       -1.61645        0.08049
H          3.68637       -2.93718        0.97905
