11
../calculations/M062X_631+Gdp_SDD_SMD_SAS_Alpha0485/La41H-/step2_1_La41H-.log	Energy: -417927.3804078
C          0.14008       -3.86455        2.49800
H         -0.34203       -4.20174        3.41639
H         -0.45906       -4.18711        1.64552
C          1.55425       -4.40951        2.39843
H          2.04987       -4.04065        1.49403
H          2.15977       -4.07151        3.24687
C          1.62830       -5.93501        2.36864
O          0.56334       -6.60472        2.47913
O          2.78117       -6.44175        2.23412
S          0.21092       -2.03296        2.50826
H         -1.10810       -1.81072        2.59378
