15
../calculations/M062X_631+Gdp_SDD_SMD_SAS_Alpha0485/La3021H/step2_1_La3021H.log	Energy: -552369.1168520
O         -0.05494        2.20095        0.18980
O         -1.85564        0.87588        0.30468
C          0.31094       -0.13716        0.24937
C         -0.64200        0.99917        0.25042
C         -0.19824       -1.43266        0.37086
C          1.68851        0.06708        0.13360
C          2.55717       -1.01863        0.13898
C          0.65940       -2.52545        0.38072
C          2.02814       -2.29939        0.26470
H          2.08763        1.06974        0.03756
H         -1.26808       -1.58434        0.45972
H          0.27424       -3.53347        0.47707
Cl         3.11498       -3.66887        0.27416
H          3.62690       -0.87178        0.04884
H         -0.74688        2.88374        0.19243
