11
../calculations/M062X_631+Gdp_SDD_SMD_SAS_Alpha0485/La30H/step2_1_La30H.log	Energy: -334634.8285276
S          0.22087       -0.55909        0.05260
H         -0.18127       -2.79574        0.87576
H         -0.39118       -2.70243       -0.88833
C          0.23204       -2.38740       -0.04952
H         -1.10671       -0.40745        0.14740
C          1.65961       -2.86900       -0.24403
H          2.04918       -2.48803       -1.19167
H          2.29292       -2.46757        0.55776
N          1.67683       -4.33550       -0.29436
H          2.62894       -4.64205       -0.47672
H          1.44905       -4.69174        0.63147
