15
../calculations/M062X_631+Gdp_SDD_SMD_SAS_Alpha0485/La40H/step2_1_La40H.log	Energy: -523816.3289057
S          2.11021        0.93439        0.03457
C          3.25745       -1.53216       -0.03791
C          2.04410       -0.82830       -0.05287
C          0.83066       -1.52551       -0.13192
C          0.82731       -2.91051       -0.19283
C          2.04373       -3.58731       -0.17442
C          3.26198       -2.91647       -0.10017
H          4.19982       -0.99878        0.01952
H         -0.11217       -0.99104       -0.14259
H         -0.10479       -3.45775       -0.25044
H          4.19371       -3.46708       -0.09050
H          0.78943        1.14981       -0.02927
N          2.04217       -5.03813       -0.22967
O          0.96710       -5.62426       -0.27086
O          3.11631       -5.62762       -0.23024
