14
../calculations/M062X_631+Gdp_SDD_SMD_SAS_Alpha0485/La19H/step2_1_La19H.log	Energy: -418950.7910646
S         -1.23517        2.33316       -0.18983
C         -1.30269        0.50590       -0.31059
H         -1.92774        0.11235        0.49421
H         -1.73730        0.23403       -1.27291
C          0.09728       -0.06512       -0.20833
H          0.72007        0.32984       -1.02275
C          0.07026       -1.57867       -0.30427
H         -0.36341       -1.88187       -1.26339
H         -0.53425       -1.98788        0.51292
O          1.41960       -2.02922       -0.19617
H          1.41535       -2.98259       -0.04461
O          0.65050        0.33856        1.04351
H          1.51623       -0.08610        1.12716
H         -2.48805        2.56135       -0.60551
