17
../calculations/M062X_631+Gdp_SDD_SMD_SAS_Alpha0485/La3028H/step2_1_La3028H.log	Energy: -392271.6103398
O          0.01644        2.10772        0.20134
O         -1.78116        0.77536        0.29391
C          0.38938       -0.23140        0.24706
C         -0.57041        0.90848        0.24908
C         -0.12397       -1.52465        0.37140
C          1.76486       -0.01728        0.12789
C          2.63526       -1.09975        0.13334
C          0.73386       -2.61571        0.38008
C          2.09726       -2.37405        0.26190
H          2.15756        0.98692        0.02970
H         -1.19329       -1.67336        0.46244
H          0.35737       -3.62515        0.47737
N          3.00972       -3.52192        0.26799
H          3.70416       -0.95935        0.04236
H         -0.67390        2.79250        0.20384
O          2.53342       -4.64249        0.36453
O          4.20969       -3.31209        0.17554
