19
../calculations/M062X_631+Gdp_SDD_SMD_SAS_Alpha0485/La37H/step2_1_La37H.log	Energy: -397796.6598516
C          1.64786       -0.54440       -0.23264
C          2.37847        0.04556        0.97449
C          2.33847        1.57598        0.95586
C          0.89363        2.07036        0.88731
C          0.16806        1.49755       -0.32792
C          0.20858       -0.03304       -0.30633
H          2.83671        1.98199        1.84264
H          1.90257       -0.31454        1.89649
H          3.41915       -0.29451        0.99679
H          2.17876       -0.25593       -1.15032
H          1.66036       -1.63859       -0.18487
H          0.37069        1.76386        1.79980
H         -0.86707        1.85549       -0.34691
H          0.66052        1.86542       -1.23827
H         -0.34948       -0.39667        0.56713
H         -0.29517       -0.42761       -1.19505
H          2.88206        1.94407        0.07473
S          0.91460        3.90878        0.87002
H         -0.41080        4.08809        0.76361
