9
../calculations/M062X_631+Gdp_SDD_SMD_SAS_Alpha0485/La24H/step2_1_La24H.log	Energy: -299909.1255630
S          0.29279       -0.48382       -0.10196
H         -0.00417       -2.79512        0.52612
H          0.00971       -2.59343       -1.23634
C          0.49420       -2.29540       -0.30566
H         -1.04508       -0.44263       -0.16750
C          1.97516       -2.63586       -0.33318
H          2.10076       -3.71566       -0.44937
H          2.47930       -2.14291       -1.16907
H          2.46933       -2.33454        0.59463
