13
../calculations/M062X_631+Gdp_SDD_SMD_SAS_Alpha0485/La39H/step2_1_La39H.log	Energy: -2008982.9726048
S          2.20039        1.40511        0.09065
C          2.22238       -3.14098       -0.11659
C          0.99826       -2.48495       -0.06696
C          0.97244       -1.09458       -0.00257
C          2.16714       -0.37044        0.00872
C          3.38958       -1.04705       -0.03959
H          4.37079       -2.95708       -0.13812
H          4.32387       -0.49542       -0.03087
C          3.42083       -2.43653       -0.10163
H          0.01587       -0.58471        0.03622
H          0.06919       -3.04328       -0.07680
H          0.87595        1.59483        0.02277
Br         2.25856       -5.03292       -0.20581
