23
../calculations/M062X_631+Gdp_SDD_SMD_SAS_Alpha0485/La2010H+/step2_1_La2010H+.log	Energy: -183706.5994904
N         -0.20372        0.67955        0.57163
C         -1.33815        1.57510        0.15295
C          1.13014        1.27534        0.21151
C         -0.35362       -0.70593        0.00442
C         -2.59445        1.32556        0.96326
C          1.56754        2.33560        1.20133
C          0.34916       -1.74350        0.85634
H         -1.00421        2.60421        0.28217
H         -1.48817        1.39329       -0.91339
H          1.85187        0.45953        0.18600
H          1.01893        1.67150       -0.80006
H         -1.42000       -0.92145       -0.05090
H          0.04096       -0.66132       -1.01298
H         -2.95808        0.29992        0.86835
H         -2.42634        1.54300        2.02159
H         -3.37851        1.99391        0.60086
H          0.85597        3.16153        1.26888
H          1.70483        1.90582        2.19729
H          2.52594        2.74404        0.87360
H          1.42212       -1.55794        0.94476
H         -0.08554       -1.77946        1.85907
H          0.21402       -2.72356        0.39388
H         -0.23743        0.59600        1.59335
