10
../calculations/M062X_631+Gdp_SDD_SMD_SAS_Alpha0485/La3008H/step2_1_La3008H.log	Energy: -191470.6542370
O          1.58966        1.49453        0.40126
O         -0.56106        1.03316       -0.02621
C          1.02399       -0.74710       -0.23415
C          0.59872        0.67329        0.05707
H          0.74577       -0.94746       -1.27365
H          0.39992       -1.39652        0.38638
C          2.43868       -1.04366       -0.02232
C          3.60357       -1.31084        0.14932
H          1.22204        2.38101        0.56273
H          4.63680       -1.54295        0.30239
