16
../calculations/M062X_631+Gdp_SDD_SMD_SAS_Alpha0485/La10H/step2_1_La10H.log	Energy: -420186.6023876
S          0.85041        2.83989       -0.00662
C          1.96681        0.34817       -0.15674
C          0.77590        1.06094        0.00785
C         -0.42206        0.36338        0.18007
C         -0.41973       -1.03023        0.18592
C          0.76136       -1.76023        0.01865
C          1.95148       -1.04475       -0.15062
H          2.90630        0.87714       -0.28519
H         -1.35586        0.90086        0.31230
H         -1.35954       -1.55800        0.32439
H          2.88614       -1.58436       -0.27714
H         -0.45423        3.05912        0.20386
C          0.74855       -3.26568       -0.00665
H         -0.05286       -3.66469        0.62016
H          0.58618       -3.63598       -1.02463
H          1.69942       -3.67381        0.34460
