22
../calculations/M062X_631+Gdp_SDD_SMD_SAS_Alpha0485/La45H/step2_1_La45H.log	Energy: -739643.4623483
C          0.90458       -0.79413        6.08735
H         -0.09421       -0.86598        5.65416
H          1.64752       -1.02207        5.32057
C          1.13409        0.59392        6.66178
H          2.11784        0.64777        7.14375
H          0.37804        0.81648        7.41732
C          1.07132        2.90929        5.91536
C          0.96723        5.18213        5.03698
H          1.42437        5.72454        4.20706
H          1.41047        5.55159        5.96332
C         -0.53955        5.41033        5.04571
H         -1.00093        4.88112        5.88283
H         -0.98916        5.04823        4.11902
S         -0.97340        7.16634        5.27896
H         -0.41204        7.62201        4.14921
S          1.06334       -2.01631        7.44056
N          1.02542        1.58404        5.59688
H          1.41471        1.31687        4.70030
N          1.30681        3.77386        4.88292
H          1.18634        3.39633        3.95127
O          0.91604        3.30713        7.08648
H          0.84946       -3.10608        6.69176
