8
../calculations/M062X_631+Gdp_SDD_SMD_SAS_Alpha0485/La3023H/step2_1_La3023H.log	Energy: -205959.7857132
O         -0.21851        1.81508       -0.00301
O         -0.09194       -0.42989        0.00215
C          1.94234        0.80968        0.00203
C          0.44174        0.66287        0.00048
H          2.34372        0.33001       -0.89199
H          2.34181        0.33136        0.89761
F          2.31994        2.14595        0.00144
H         -1.17468        1.63349       -0.00358
