10
../calculations/M062X_631+Gdp_SDD_SMD_SAS_Alpha0485/La22H/step2_1_La22H.log	Energy: -323795.4143419
S         -0.56078        1.77498       -0.18782
C          1.62605       -1.19298        0.32438
H          2.61386       -1.52836        0.02426
H          1.31148       -1.41185        1.34210
C         -0.54535       -0.06592       -0.16833
C          0.82756       -0.54308       -0.52252
H         -0.83964       -0.41887        0.82113
H         -1.27386       -0.40633       -0.90667
H          1.16577       -0.32803       -1.53506
H         -1.89058        1.93350       -0.24536
