15
../calculations/M062X_631+Gdp_SDD_SMD_SAS_Alpha0485/La36H/step2_1_La36H.log	Energy: -430253.3668832
S          2.57974       -0.23752       -0.61765
C          2.52413       -2.05135       -0.92038
H          1.98528       -2.52482       -0.10004
H          2.00294       -2.23293       -1.85976
C          3.93218       -2.56692       -1.00098
C          4.61075       -2.95918        0.15492
C          5.91919       -3.41613        0.04634
H          4.11212       -2.90440        1.11678
C          5.75794       -3.04936       -2.30847
C          6.50813       -3.46492       -1.21396
H          6.46771       -3.73022        0.92795
H          6.18514       -3.07479       -3.30630
H          7.52416       -3.81521       -1.35245
H          1.25640       -0.02759       -0.66790
N          4.49668       -2.60645       -2.21789
