18
../calculations/M062X_631+Gdp_SDD_SMD_SAS_Alpha0485/La3010H/step2_1_La3010H.log	Energy: -288645.3108976
O         -0.04485        2.19582        0.23423
O         -1.85036        0.87490        0.26710
C          0.31471       -0.14474        0.24673
C         -0.63353        0.99109        0.24989
C         -0.19545       -1.44601        0.28856
C          1.69854        0.05553        0.20192
C          2.55543       -1.03920        0.19827
C          0.66944       -2.53364        0.28615
C          2.05720       -2.34776        0.24366
H          2.10331        1.06052        0.16563
H         -1.26894       -1.59903        0.32017
H          0.26561       -3.54133        0.31642
C          2.99302       -3.52355        0.27181
H          3.62900       -0.87978        0.15872
H         -0.73906        2.87601        0.23691
H          3.90184       -3.31815       -0.29863
H          2.51664       -4.41868       -0.13437
H          3.29280       -3.74467        1.30181
