8
../calculations/M062X_631+Gdp_SDD_SMD_SAS_Alpha0485/La29H-/step2_1_La29H-.log	Energy: -393268.2395777
S          1.60280        1.70627        0.42856
C          3.08053       -0.63331        0.16485
O          3.19390       -1.88992        0.09509
O          4.03521        0.18740        0.12570
H          1.07790       -0.44512       -0.55881
H          1.21113       -0.55866        1.20166
C          1.65193       -0.11336        0.30814
H          0.26928        1.80462        0.52613
