11
../calculations/M062X_631+Gdp_SDD_SMD_SAS_Alpha0485/La3014H/step2_1_La3014H.log	Energy: -456749.3994871
O          0.07295        0.38830        0.93994
O          0.07866        0.39676       -1.30414
C          1.72570       -0.92851       -0.16660
C          0.53369        0.00349       -0.24798
H          1.90491       -1.31905       -1.16562
Cl         1.29900       -2.36284        0.85521
C          2.94869       -0.22578        0.39327
H         -0.67333        0.99916        0.81191
H          2.76700        0.12046        1.41237
H          3.18307        0.63521       -0.23855
H          3.80100       -0.90706        0.38797
