15
../calculations/M062X_631+Gdp_SDD_SMD_SAS_Alpha0485/La3020H/step2_1_La3020H.log	Energy: -552362.8288576
O         -0.27603        2.15062       -0.39532
O         -1.64844        0.90251        0.77562
C          0.44715       -0.09891        0.27575
C         -0.55486        1.01398        0.25199
C         -0.08736       -1.39497        0.26730
C          1.84050        0.03745        0.32143
C          2.67127       -1.07778        0.35624
C          0.73337       -2.51470        0.28469
C          2.11665       -2.35382        0.33027
Cl         2.62925        1.60224        0.38378
H         -1.16526       -1.50642        0.23738
H          0.29446       -3.50553        0.26680
H          2.77058       -3.21861        0.35206
H          3.74488       -0.94089        0.40730
H          0.60836        2.15074       -0.79456
