6
../calculations/M062X_631+Gdp_SDD_SMD_SAS_Alpha0485/La23H/step2_1_La23H.log	Energy: -275250.2515104
S         -0.29944       -0.18883        0.02818
H         -0.70953       -2.42313        0.89391
H         -0.81939       -2.37964       -0.88955
H          0.76501       -2.30863       -0.08982
C         -0.28058       -2.00962       -0.01810
H         -1.62713       -0.03097        0.11305
