8
../calculations/M062X_631+Gdp_SDD_SMD_SAS_Alpha0485/La3027H/step2_1_La3027H.log	Energy: -330478.7165011
O         -0.24008        1.71937       -0.40975
O         -0.10909       -0.26486        0.67030
C          1.91456        0.85557        0.01974
C          0.38480        0.69922        0.14364
F          2.30067        0.67866       -1.25219
F          2.53406       -0.05169        0.77112
F          2.32347        2.06929        0.40441
H         -1.20398        1.59297       -0.34213
