17
../calculations/M062X_631+Gdp_SDD_SMD_SAS_Alpha0485/La3005H/step2_1_La3005H.log	Energy: -217685.2453469
O          0.01631        0.42878        1.03204
O         -0.22712        0.42993       -1.18725
C          1.64253       -0.79700       -0.22130
C          0.39949        0.07151       -0.20352
C          2.03821       -1.08200       -1.66803
C          1.32229       -2.11100        0.50773
C          2.77766       -0.05998        0.50312
H         -0.78579        0.97414        0.96435
H          2.53004        0.12445        1.55134
H          2.99690        0.89752        0.02090
H          0.48893       -2.63424        0.02893
H          1.06950       -1.93513        1.55644
H          2.20239       -2.76010        0.46988
H          2.25862       -0.15659       -2.20807
H          1.24359       -1.61256       -2.20041
H          2.93523       -1.70772       -1.67783
H          3.68036       -0.67734        0.46683
