16
../calculations/M062X_631+Gdp_SDD_SMD_SAS_Alpha0485/La7H/step2_1_La7H.log	Energy: -420187.5762007
S          0.66951        1.82263       -0.02951
C          1.83319       -0.65547       -0.08854
C          0.61236        0.04132       -0.04077
C         -0.60192       -0.65081       -0.00342
C         -0.61395       -2.04357       -0.01470
C          0.58627       -2.75058       -0.06373
C          1.79261       -2.05309       -0.09997
H         -1.53937       -0.10501        0.03330
H         -1.56253       -2.56948        0.01426
H          0.58451       -3.83553       -0.07304
H          2.73150       -2.59845       -0.13663
H         -0.65429        2.01896        0.03079
C          3.14536        0.07819       -0.12283
H          3.21616        0.72434       -1.00480
H          3.26302        0.71894        0.75828
H          3.98035       -0.62436       -0.14706
