14
../calculations/M062X_631+Gdp_SDD_SMD_SAS_Alpha0485/La31H/step2_1_La31H.log	Energy: -621605.8262485
S         -2.31053        0.64047        0.16273
C         -1.05798       -1.78049       -0.36611
C          0.12755       -1.44770        0.53349
H         -0.02471       -1.88404        1.52961
H          0.20366       -0.36315        0.64681
O          1.36734       -1.86827       -0.01782
H          1.32016       -2.82329       -0.17115
H         -0.85542       -1.41636       -1.37668
H         -3.18763       -1.50209       -0.49124
H         -2.55945       -1.55986        1.17005
C         -2.36566       -1.20037        0.15711
S         -1.19381       -3.61556       -0.46233
H         -3.63379        0.82810        0.07610
H         -1.77600       -3.67131       -1.66766
