14
../calculations/M062X_631+Gdp_SDD_SMD_SAS_Alpha0485/La2009H+/step2_1_La2009H+.log	Energy: -109729.0042233
N          0.01956        0.03308        0.33959
C         -0.53341       -1.28450       -0.07977
C         -0.84335        1.15561       -0.12212
C          1.42327        0.20713       -0.12648
H         -1.54610       -1.37960        0.30760
H          0.09779       -2.07536        0.32268
H         -0.54009       -1.32102       -1.16899
H         -1.83772        1.03391        0.30347
H         -0.89087        1.12276       -1.21051
H         -0.40386        2.09399        0.21069
H          1.79883        1.15841        0.24657
H          1.42550        0.20048       -1.21623
H          2.02667       -0.61333        0.25840
H          0.02907        0.05101        1.36212
