8
../calculations/M062X_631+Gdp_SDD_SMD_SAS_Alpha0485/La2001H+/step2_1_La2001H+.log	Energy:  -60421.4199547
N         -0.72241       -0.06041        0.09546
C          0.76184       -0.01487        0.01668
H          1.15597        0.15140        1.01533
H          1.04768        0.79760       -0.64545
H          1.11381       -0.96524       -0.37647
H         -1.10056        0.82089        0.44404
H         -1.03440       -0.80410        0.72064
H         -1.13208       -0.23209       -0.82353
