16
../calculations/M062X_631+Gdp_SDD_SMD_SAS_Alpha0485/La17H/step2_1_La17H.log	Energy: -396407.1266642
S         -0.96946        1.47515       -0.19085
C         -1.03617       -0.34940       -0.30848
H         -1.67008       -0.73808        0.49012
H         -1.45531       -0.63309       -1.27523
C          0.37136       -0.89713       -0.16977
H          1.02294       -0.49749       -0.95937
H          0.80113       -0.62165        0.80315
O          0.29616       -2.30902       -0.27890
C          1.57468       -2.92674       -0.15458
H          2.00743       -2.66706        0.82099
H          2.24121       -2.53673       -0.93566
C          1.40416       -4.42259       -0.28819
H          0.98346       -4.67855       -1.26452
H          2.37428       -4.91618       -0.19071
H          0.74138       -4.80783        0.49162
H         -2.28893        1.68419       -0.28805
