16
../calculations/M062X_631+Gdp_SDD_SMD_SAS_Alpha0485/La21H/step2_1_La21H.log	Energy: -396418.7633159
S          2.26713       -0.00373       -0.05230
C          1.65086       -2.22138       -1.59530
H          0.60180       -1.91120       -1.61333
H          2.16987       -1.75132       -2.43558
H          1.68420       -3.30733       -1.72876
C          1.57023       -2.50932        0.89973
H          1.58694       -3.59688        0.77675
H          2.04111       -2.25958        1.85493
H          0.52509       -2.18773        0.93056
C          3.78690       -2.19476       -0.25902
H          4.29446       -1.67759       -1.08249
H          4.24029       -1.88041        0.68852
C          2.29757       -1.84281       -0.26522
O          3.91840       -3.60554       -0.41557
H          4.85682       -3.82445       -0.35457
H          0.93243        0.11283       -0.12098
