10
../calculations/M062X_631+Gdp_SDD_SMD_SAS_Alpha0485/La34H/step2_1_La34H.log	Energy: -549755.7905089
C         -2.97639       -0.76426       -0.16018
H         -3.53535       -1.10227       -1.03408
H         -3.44167       -1.16530        0.74160
C         -1.52200       -1.19312       -0.25279
H         -0.96305       -0.85511        0.62110
H         -1.05672       -0.79209       -1.15458
S         -1.45839       -3.02407       -0.32269
H         -0.12597       -3.13253       -0.41392
S         -3.04003        1.06668       -0.09028
H         -4.37245        1.17512        0.00093
