13
../calculations/M062X_631+Gdp_SDD_SMD_SAS_Alpha0485/La2H/step2_1_La2H.log	Energy: -510079.3588238
S          2.49304        2.26269        1.06425
N          1.48095       -1.66289        1.10958
C          1.37724       -0.29612        1.12438
C          2.47367        0.49320        1.06696
C          3.77901       -0.13434        0.97991
N          3.77255       -1.51457        0.97676
H          0.36884        0.09205        1.18270
C          2.66843       -2.32857        1.04215
O          4.84526        0.48742        0.91298
O          2.75374       -3.55996        1.04015
H          4.67336       -1.98055        0.92518
H          0.64458       -2.23158        1.15787
H          1.16293        2.41374        1.13430
