18
../calculations/M062X_631+Gdp_SDD_SMD_SAS_Alpha0485/La3011H/step2_1_La3011H.log	Energy: -288642.1969471
O         -0.46308        1.19490       -1.13644
O         -1.41541        2.05660        0.69707
C         -0.41746       -0.13901        0.83381
C         -0.81155        1.14627        0.15586
C          0.99488       -0.57469        0.52112
C          3.37796       -0.12814        0.57149
C          3.62851       -1.35883       -0.03948
C          1.25248       -1.80195       -0.09187
C          2.56354       -2.19449       -0.36954
C          2.06961        0.25935        0.85024
H          0.42467       -2.45526       -0.35282
H          2.74988       -3.15218       -0.84492
H          4.64753       -1.66226       -0.25649
H         -0.76870        2.03706       -1.51468
H         -0.55825        0.00909        1.90624
H         -1.13122       -0.89955        0.50120
H          1.87484        1.21838        1.32430
H          4.20254        0.52842        0.83012
