12
../calculations/M062X_631+Gdp_SDD_SMD_SAS_Alpha0485/La3018H/step2_1_La3018H.log	Energy: -215541.7931406
O          0.46145        1.62577        0.15107
O         -0.47408       -0.40435        0.34773
C          1.89774       -0.28224        0.10743
C          0.51259        0.29770        0.21410
H          1.89512       -0.97372       -0.74496
H          2.07457       -0.86811        1.01958
O          2.86658        0.72584       -0.05230
H         -0.46559        1.91122        0.22567
C          4.17560        0.18215       -0.15742
H          4.24944       -0.48803       -1.02144
H          4.44185       -0.36888        0.75177
H          4.85938        1.02076       -0.28784
