8
../calculations/M062X_631+Gdp_SDD_SMD_SAS_Alpha0485/La3024H/step2_1_La3024H.log	Energy: -720465.6648692
O         -0.25991        1.56882        0.55566
O         -0.13514       -0.06236       -0.99147
C          1.90117        0.77213       -0.06421
C          0.38609        0.70938       -0.21803
H          2.35320        0.00129       -0.67956
Cl         2.37044        0.47417        1.62714
Cl         2.50684        2.35010       -0.63161
H         -1.21829        1.48501        0.40721
