13
../calculations/M062X_631+Gdp_SDD_SMD_SAS_Alpha0485/La5H/step2_1_La5H.log	Energy: -683911.2033307
S          1.62812        2.54095        0.16659
C          1.57245       -2.01072        0.04762
C          0.36711       -1.32802       -0.06686
C          0.36623        0.06445       -0.03085
C          1.56620        0.76536        0.11777
C          2.76870        0.06061        0.23283
H          3.70964       -1.87521        0.28517
H          3.70728        0.59286        0.34770
C          2.77627       -1.33108        0.19810
H         -0.57619        0.59466       -0.11690
H         -0.56403       -1.87115       -0.18074
Cl         1.57542       -3.76275       -0.00046
H          0.31253        2.75127        0.02669
