33
 energy: -48.422264997467 gnorm: 0.000742733079 xtb: 6.4.1 (afa7bdf)
C         1.23561672697488    0.61399549837899   -0.01300392999523
C         1.33158865977483   -0.41949193130529    0.91361765425313
C         2.43403869963375   -1.24985942843486    0.95839889412963
C         3.48112931380687   -1.06231940620646    0.06400647030451
C         3.39971369955515   -0.03148293919619   -0.86411612160081
C         2.29110707083134    0.79385721708849   -0.89684830225566
H         2.47929051303073   -2.04616999049127    1.68764668849638
H         2.26458198815033    1.58242686556510   -1.63103696775469
H         0.52068654581110   -0.58732738754001    1.60762121686024
H         4.21623228336415    0.10790047055454   -1.55566017273982
C        -0.00071901291872    1.49921006808050    0.01512869255157
C        -1.22793009121406    0.60097287202177    0.02352521476452
C        -2.30080758675460    0.77520255611831    0.88436100464099
C        -1.29851781380746   -0.43565698284649   -0.90478948566835
C        -3.40512662753857   -0.05919118448767    0.83105973233439
H        -2.29367177331739    1.56520601032044    1.61740867906115
C        -2.39214031387997   -1.27239139101523   -0.96914510912368
H        -0.47387321425720   -0.59694639898190   -1.58382677328363
C        -3.45999711530906   -1.09086942456150   -0.09497831341625
H        -4.22656253471218    0.09698385980307    1.51618339004116
H        -2.44065307438064   -2.07450397387551   -1.68873199403566
O         4.59152506123021   -1.85225730509042    0.05781353439834
H         4.52863828933739   -2.52958875000620    0.74759184526360
O        -4.52186129792821   -1.94003532353955   -0.18734047378445
H        -5.19569669221016   -1.71151658984193    0.47049012059255
C        -0.11540886563559    2.41021097563303   -1.21543356079360
H         0.68568435029412    3.14498214071814   -1.22887849010754
H        -0.08684027017713    1.83039871318810   -2.13435973522215
H        -1.06459037645393    2.94105914488564   -1.17892261344469
C         0.10307461743307    2.38743542932850    1.26355950944633
H         1.05186909653357    2.91979990774434    1.24387082811763
H        -0.69834253902022    3.12164300829489    1.28408080158585
H         0.06744580276196    1.79139750881003    2.17168748621128
