24
 energy: -37.578984421081 gnorm: 0.000476983803 xtb: 6.4.1 (afa7bdf)
C         1.62557317209130    0.00253174038190   -0.00002899512004
C         0.67520749700567    1.02838524744134   -0.00002381245594
C        -0.67440376859878    0.74184581996900    0.00001980893231
C        -1.10056836683537   -0.60556853332648    0.00005297225340
C        -0.15191678176512   -1.60796139727139    0.00005501688348
C         1.20846900820767   -1.31491475708222    0.00001427194017
H        -0.45122347019720   -2.64277433848665    0.00009106397737
H         1.91179095149729   -2.13025185302684    0.00001133048548
O        -2.45791257240083   -0.79536540147554    0.00008407892276
C        -2.94268796741687   -2.12350139357074   -0.00021677710929
H        -2.61976340045517   -2.66296313472249    0.89444801654426
H        -4.02624803411300   -2.03009125995457   -0.00036525965459
H        -2.61948524942718   -2.66264990161070   -0.89496945251566
O        -1.67016922567105    1.67318261198867    0.00003703359609
C        -1.30933729963632    3.04127880459558   -0.00009193991255
H        -0.73529778273741    3.29783247549981   -0.89425670676161
H        -2.25225550062513    3.58305790742510   -0.00008732327362
H        -0.73520633739759    3.29798270061853    0.89397116069088
H         1.04067285442760    2.04131918174316   -0.00006101877124
O         2.92844964147911    0.42042986656955   -0.00008468319454
C         3.94701888963776   -0.56156670548454    0.00007431521668
H         4.88102144431134   -0.00433523774157    0.00010354147832
H         3.89148102791129   -1.18764682971442    0.89440316696052
H         3.89162875573516   -1.18779342080200   -0.89416150951434
