24
 energy: -37.572542513195 gnorm: 0.000580020937 xtb: 6.4.1 (afa7bdf)
C         1.20614875349860   -1.65429374891271    0.15747974937708
C         1.21534380045882   -0.28187683272429   -0.07011844086095
C        -0.00000192238120    0.40078565365018   -0.20134248725633
C        -1.21521484004373   -0.28213017106396   -0.07015358068946
C        -1.20574199810020   -1.65455118256034    0.15738733248764
C         0.00027208642047   -2.32111791459187    0.26399190759250
H        -2.12738511700575   -2.20294252391633    0.25324730091836
H         0.00037605922158   -3.38534620302065    0.43897218123289
O        -2.33584548033353    0.48609910119382   -0.17487866740999
C        -3.59872340262135   -0.15020830088250   -0.10273253348436
H        -3.74521038758594   -0.62509568594917    0.87085091552211
H        -4.32538557561471    0.64814962268472   -0.23462238248292
H        -3.71413724700621   -0.88891876842229   -0.89942479378921
H         2.12790436194803   -2.20247055664650    0.25348999934514
O         2.33581955114512    0.48657682872784   -0.17483090681994
C         3.59881943152432   -0.14956317758524   -0.10340052863207
H         4.32529749020545    0.64886436062712   -0.23588422674439
H         3.74600671837746   -0.62428159723832    0.87016062419343
H         3.71380333891069   -0.88838163856294   -0.90005195607580
O        -0.00012911996680    1.75916903323084   -0.49123601720734
C        -0.00069514833967    2.59230278000814    0.65783773931164
H         0.89422088575499    2.41817041553221    1.26279758321897
H        -0.00104042894113    3.61241669420379    0.28208206037606
H        -0.89569472641845    2.41744918022621    1.26245834552159
