18
 energy: -29.333299566614 gnorm: 0.000673011162 xtb: 6.4.1 (afa7bdf)
C         0.11484810977057    1.52472668851601    0.00001704889279
C        -1.23645583130246    1.81542439836169    0.00002819125785
C        -2.16786072113463    0.79482733140543    0.00001457089989
C        -1.74586823035606   -0.53518549900167   -0.00001197443834
C        -0.38916624656676   -0.83069968936811   -0.00002401497836
C         0.55171008495176    0.19919955409822   -0.00000679402442
O        -2.69644165140042   -1.50001931144453   -0.00002492710163
H        -2.29696234878333   -2.38379516500670   -0.00003710731747
H        -1.56735481820360    2.84200703686173    0.00004823161613
H        -3.22666192956688    0.99913585290001    0.00002374330127
H        -0.07357545222661   -1.86189680632247   -0.00005400839873
H         0.85675621306517    2.30879933002898    0.00002965680334
C         2.01039302719118   -0.05369836239417   -0.00001291319046
O         2.81111809075001    0.87057664600892   -0.00009089859341
C         2.47520450112553   -1.48323484232195    0.00006552462973
H         3.56186696147159   -1.50508361914522    0.00019516562412
H         2.10288344543862   -1.99311916699611    0.88475359059133
H         2.10311021345835   -1.99311159385041   -0.88472536994501
