24
 energy: -34.211356942394 gnorm: 0.000217372832 xtb: 6.4.1 (afa7bdf)
C        -3.61909086208790   -0.65812804168215    0.38538476663279
C        -2.35017868246360   -1.20043896452363    0.40688479502949
C        -1.24778680915227   -0.45459317297968   -0.02065179373803
C        -1.46474752082748    0.83498861460051   -0.50960935227697
C        -2.73821677373026    1.37099997304351   -0.52104948900003
C        -3.82055442146186    0.63635954229249   -0.06610174163782
H        -4.45735479327489   -1.24848380170816    0.72470876853915
H        -2.20104076467312   -2.21131012720558    0.75806747668171
H        -0.63988409956256    1.40507905276927   -0.90696234680548
H        -2.88674504667544    2.37154808369157   -0.89988848275052
H        -4.81171476316303    1.06292307214357   -0.07522347248954
N        -0.00002635000611   -1.04891538105914    0.00009310537376
H        -0.00005280391672   -2.05836875696709    0.00006478970314
C         1.24777097991472   -0.45465690496874    0.02070781169452
C         1.46484792056073    0.83487970932534    0.50973332317648
C         2.35007284920065   -1.20052226022786   -0.40702007515818
C         2.73833980099416    1.37083899308486    0.52104197960827
H         0.64005597506225    1.40496918237664    0.90723624501369
C         3.61901122678313   -0.65826442127297   -0.38564913623544
H         2.20084655483414   -2.21136253497890   -0.75825390475239
C         3.82058567166657    0.63618462737053    0.06589595144048
H         2.88696267303737    2.37135350450780    0.89993188426498
H         4.45720594841608   -1.24863002034036   -0.72512633921517
H         4.81176380062506    1.06270903082992    0.07491199895480
